xflr5 v6.61

Plane name :        Plane Name
Polar name :        Estudio
Freestream speed :  83.340 m/s


   alpha      Beta       CL          CDi        CDv        CD         CY         Cl         Cm         Cn        Cni       QInf        XCP
  -20.000     0.000  -1.531596   0.113359   0.013471   0.126831   0.000000   0.000000   0.362601   0.000000   0.000000   83.3400     0.8072
  -19.500     0.000  -1.496236   0.108178   0.012887   0.121064   0.000000   0.000000   0.354932   0.000000  -0.000000   83.3400     0.8116
  -19.000     0.000  -1.460670   0.103001   0.012309   0.115311   0.000000   0.000000   0.347120  -0.000000  -0.000000   83.3400     0.8157
  -18.500     0.000  -1.424496   0.097874   0.011757   0.109631   0.000000   0.000000   0.339065  -0.000000  -0.000000   83.3400     0.8196
  -18.000     0.000  -1.387532   0.092793   0.011253   0.104046   0.000000   0.000000   0.330704   0.000000   0.000000   83.3400     0.8232
  -17.500     0.000  -1.349961   0.087783   0.010793   0.098575   0.000000   0.000000   0.322110   0.000000   0.000000   83.3400     0.8265
  -17.000     0.000  -1.311702   0.082825   0.010384   0.093209   0.000000   0.000000   0.313225   0.000000   0.000000   83.3400     0.8295
  -16.500     0.000  -1.272642   0.077933   0.010012   0.087946   0.000000   0.000000   0.303990   0.000000   0.000000   83.3400     0.8320
  -16.000     0.000  -1.233076   0.073150   0.009667   0.082818   0.000000   0.000000   0.294551   0.000000   0.000000   83.3400     0.8341
  -15.500     0.000  -1.192434   0.068411   0.009343   0.077754   0.000000   0.000000   0.284586   0.000000   0.000000   83.3400     0.8354
  -15.000     0.000  -1.151737   0.063838   0.009032   0.072870   0.000000   0.000000   0.274630   0.000000   0.000000   83.3400     0.8366
  -14.500     0.000  -1.111706   0.059485   0.008743   0.068228   0.000000   0.000000   0.265054   0.000000   0.000000   83.3400     0.8385
  -14.000     0.000  -1.072451   0.055330   0.008480   0.063811   0.000000   0.000000   0.255895   0.000000   0.000000   83.3400     0.8411
  -13.500     0.000  -1.032683   0.051286   0.008236   0.059523   0.000000   0.000000   0.246492   0.000000   0.000000   83.3400     0.8432
  -13.000     0.000  -0.992476   0.047361   0.008008   0.055369   0.000000   0.000000   0.236873  -0.000000  -0.000000   83.3400     0.8448
  -12.500     0.000  -0.951933   0.043566   0.007795   0.051361   0.000000   0.000000   0.227091   0.000000   0.000000   83.3400     0.8460
  -12.000     0.000  -0.911209   0.039914   0.007586   0.047500   0.000000   0.000000   0.217220   0.000000   0.000000   83.3400     0.8469
  -11.500     0.000  -0.870358   0.036411   0.007386   0.043797   0.000000   0.000000   0.207288  -0.000000  -0.000000   83.3400     0.8476
  -11.000     0.000  -0.829364   0.033059   0.007203   0.040261   0.000000   0.000000   0.197284   0.000000   0.000000   83.3400     0.8479
  -10.500     0.000  -0.788160   0.029854   0.007046   0.036900   0.000000   0.000000   0.187182   0.000000   0.000000   83.3400     0.8479
  -10.000     0.000  -0.746716   0.026798   0.006930   0.033728   0.000000   0.000000   0.176969   0.000000  -0.000000   83.3400     0.8473
   -9.500     0.000  -0.705176   0.023901   0.006842   0.030743   0.000000   0.000000   0.166707   0.000000  -0.000000   83.3400     0.8462
   -9.000     0.000  -0.663564   0.021164   0.006771   0.027935   0.000000   0.000000   0.156407   0.000000   0.000000   83.3400     0.8447
   -8.500     0.000  -0.621750   0.018584   0.006677   0.025261   0.000000   0.000000   0.146022   0.000000   0.000000   83.3400     0.8425
   -8.000     0.000  -0.579783   0.016163   0.006566   0.022729   0.000000   0.000000   0.135572   0.000000   0.000000   83.3400     0.8396
   -7.500     0.000  -0.537742   0.013908   0.006454   0.020362   0.000000   0.000000   0.125089   0.000000   0.000000   83.3400     0.8358
   -7.000     0.000  -0.495604   0.011818   0.006357   0.018174   0.000000   0.000000   0.114558   0.000000   0.000000   83.3400     0.8313
   -6.500     0.000  -0.453306   0.009892   0.006286   0.016177   0.000000   0.000000   0.103952   0.000000   0.000000   83.3400     0.8250
   -6.000     0.000  -0.410953   0.008135   0.006218   0.014352   0.000000   0.000000   0.093320   0.000000   0.000000   83.3400     0.8170
   -5.500     0.000  -0.368587   0.006549   0.006150   0.012699   0.000000   0.000000   0.082679   0.000000   0.000000   83.3400     0.8072
   -5.000     0.000  -0.326158   0.005133   0.006100   0.011233   0.000000   0.000000   0.072004   0.000000  -0.000000   83.3400     0.7939
   -4.500     0.000  -0.283658   0.003888   0.006063   0.009951   0.000000   0.000000   0.061294   0.000000   0.000000   83.3400     0.7764
   -4.000     0.000  -0.241125   0.002815   0.006022   0.008837   0.000000   0.000000   0.050569   0.000000   0.000000   83.3400     0.7516
   -3.500     0.000  -0.198540   0.001913   0.006002   0.007915   0.000000   0.000000   0.039812   0.000000   0.000000   83.3400     0.7158
   -3.000     0.000  -0.155956   0.001185   0.005980   0.007166   0.000000   0.000000   0.029053   0.000000   0.000000   83.3400     0.6582
   -2.500     0.000  -0.113297   0.000630   0.005961   0.006591   0.000000   0.000000   0.018257   0.000000   0.000000   83.3400     0.5503
   -2.000     0.000  -0.070576   0.000248   0.005944   0.006192   0.000000   0.000000   0.007429   0.000000   0.000000   83.3400     0.2671
   -1.500     0.000  -0.027817   0.000041   0.005927   0.005969   0.000000   0.000000  -0.003420   0.000000   0.000000   83.3400     0.4147
   -1.000     0.000   0.014967   0.000008   0.005909   0.005917   0.000000   0.000000  -0.014285   0.000000  -0.000000   83.3400     2.7877
   -0.500     0.000   0.057795   0.000151   0.005896   0.006047   0.000000  -0.000000  -0.025176   0.000000   0.000000   83.3400     1.9025
    0.000     0.000   0.100647   0.000469   0.005876   0.006345   0.000000  -0.000000  -0.036083   0.000000   0.000000   83.3400     1.3582
    0.500     0.000   0.143482   0.000962   0.005852   0.006814   0.000000  -0.000000  -0.046989   0.000000   0.000000   83.3400     1.2132
    1.000     0.000   0.186231   0.001629   0.005819   0.007449   0.000000  -0.000000  -0.057864   0.000000   0.000000   83.3400     1.1431
    1.500     0.000   0.228745   0.002467   0.005741   0.008208   0.000000  -0.000000  -0.068651   0.000000   0.000000   83.3400     1.0987
    2.000     0.000   0.270439   0.003460   0.005469   0.008929   0.000000  -0.000000  -0.079128   0.000000   0.000000   83.3400     1.0685
    2.500     0.000   0.312550   0.004627   0.005302   0.009929   0.000000  -0.000000  -0.089781   0.000000   0.000000   83.3400     1.0476
    3.000     0.000   0.354860   0.005970   0.005198   0.011168   0.000000  -0.000000  -0.100522   0.000000   0.000000   83.3400     1.0316
    3.500     0.000   0.397163   0.007485   0.005099   0.012584   0.000000  -0.000000  -0.111268   0.000000   0.000000   83.3400     1.0189
    4.000     0.000   0.439495   0.009172   0.005018   0.014190   0.000000  -0.000000  -0.122031   0.000000  -0.000000   83.3400     1.0084
    4.500     0.000   0.482002   0.011037   0.004995   0.016032   0.000000  -0.000000  -0.132867   0.000000   0.000000   83.3400     0.9999
    5.000     0.000   0.524607   0.013078   0.005006   0.018085   0.000000  -0.000000  -0.143748   0.000000   0.000000   83.3400     0.9927
    5.500     0.000   0.567242   0.015296   0.005034   0.020330   0.000000  -0.000000  -0.154651   0.000000   0.000000   83.3400     0.9865
    6.000     0.000   0.609793   0.017684   0.005074   0.022758   0.000000  -0.000000  -0.165526   0.000000   0.000000   83.3400     0.9808
    6.500     0.000   0.652244   0.020240   0.005132   0.025371   0.000000  -0.000000  -0.176365   0.000000   0.000000   83.3400     0.9757
    7.000     0.000   0.694589   0.022962   0.005201   0.028163   0.000000  -0.000000  -0.187165   0.000000   0.000000   83.3400     0.9710
    7.500     0.000   0.736824   0.025849   0.005279   0.031129   0.000000  -0.000000  -0.197924  -0.000000  -0.000000   83.3400     0.9664
    8.000     0.000   0.778903   0.028897   0.005375   0.034272   0.000000  -0.000000  -0.208621   0.000000   0.000000   83.3400     0.9621
    8.500     0.000   0.820817   0.032104   0.005480   0.037583   0.000000  -0.000000  -0.219252   0.000000   0.000000   83.3400     0.9579
    9.000     0.000   0.862493   0.035462   0.005615   0.041077   0.000000  -0.000000  -0.229785   0.000000   0.000000   83.3400     0.9538
    9.500     0.000   0.903947   0.038970   0.005773   0.044742   0.000000  -0.000000  -0.240224   0.000000   0.000000   83.3400     0.9497
   10.000     0.000   0.945128   0.042622   0.005954   0.048576   0.000000  -0.000000  -0.250545   0.000000   0.000000   83.3400     0.9455
   10.500     0.000   0.985923   0.046407   0.006173   0.052579   0.000000  -0.000000  -0.260697   0.000000   0.000000   83.3400     0.9413
   11.000     0.000   1.026289   0.050316   0.006423   0.056739   0.000000  -0.000000  -0.270655   0.000000   0.000000   83.3400     0.9369
   11.500     0.000   1.066174   0.054340   0.006699   0.061040   0.000000  -0.000000  -0.280388  -0.000000  -0.000000   83.3400     0.9322
   12.000     0.000   1.105493   0.058469   0.007004   0.065472   0.000000  -0.000000  -0.289857   0.000000   0.000000   83.3400     0.9273
   12.500     0.000   1.145451   0.062792   0.007327   0.070119   0.000000  -0.000000  -0.299701   0.000000   0.000000   83.3400     0.9232
   13.000     0.000   1.185855   0.067314   0.007665   0.074979   0.000000  -0.000000  -0.309821   0.000000   0.000000   83.3400     0.9197
   13.500     0.000   1.226600   0.072011   0.008010   0.080021   0.000000  -0.000000  -0.320118   0.000000   0.000000   83.3400     0.9164
   14.000     0.000   1.266980   0.076837   0.008362   0.085200   0.000000  -0.000000  -0.330252   0.000000   0.000000   83.3400     0.9130
   14.500     0.000   1.306543   0.081752   0.008715   0.090467   0.000000  -0.000000  -0.340019   0.000000   0.000000   83.3400     0.9091
   15.000     0.000   1.345671   0.086767   0.009072   0.095839   0.000000  -0.000000  -0.349590   0.000000   0.000000   83.3400     0.9051
   15.500     0.000   1.384088   0.091844   0.009463   0.101306   0.000000  -0.000000  -0.358849   0.000000   0.000000   83.3400     0.9007
   16.000     0.000   1.422521   0.097075   0.009856   0.106931   0.000000  -0.000000  -0.368167   0.000000   0.000000   83.3400     0.8965
   16.500     0.000   1.460331   0.102370   0.010274   0.112643   0.000000  -0.000000  -0.377220  -0.000000  -0.000000   83.3400     0.8920
   17.000     0.000   1.497710   0.107740   0.010714   0.118453   0.000000  -0.000000  -0.386098   0.000000   0.000000   83.3400     0.8874
   17.500     0.000   1.534759   0.113215   0.011154   0.124369   0.000000  -0.000000  -0.394860   0.000000   0.000000   83.3400     0.8828
   18.000     0.000   1.571038   0.118723   0.011630   0.130354   0.000000  -0.000000  -0.403308   0.000000   0.000000   83.3400     0.8779
   18.500     0.000   1.606247   0.124222   0.012145   0.136367   0.000000  -0.000000  -0.411309   0.000000   0.000000   83.3400     0.8726
   19.000     0.000   1.640619   0.129744   0.012695   0.142439   0.000000  -0.000000  -0.419000  -0.000000  -0.000000   83.3400     0.8671
   19.500     0.000   1.674041   0.135274   0.013261   0.148535   0.000000  -0.000000  -0.426319  -0.000000  -0.000000   83.3400     0.8614
   20.000     0.000   1.704794   0.140565   0.013868   0.154434   0.000000  -0.000000  -0.432454   0.000000   0.000000   83.3400     0.8547


